Version 4
SHEET 1 904 1388
WIRE 48 -224 -752 -224
WIRE -624 -96 -720 -96
WIRE -496 -96 -512 -96
WIRE -752 -80 -752 -224
WIRE -48 -80 -112 -80
WIRE 48 -80 48 -224
WIRE 48 -80 32 -80
WIRE 48 -64 48 -80
WIRE -720 -16 -720 -96
WIRE -704 -16 -720 -16
WIRE -624 0 -624 -96
WIRE -624 0 -640 0
WIRE -592 0 -624 0
WIRE -512 0 -512 -96
WIRE -512 0 -528 0
WIRE -496 0 -512 0
WIRE -160 0 -160 -160
WIRE -160 0 -192 0
WIRE -752 16 -752 0
WIRE -704 16 -752 16
WIRE -416 16 -416 -96
WIRE -416 16 -432 16
WIRE -400 16 -416 16
WIRE -304 16 -320 16
WIRE -256 16 -304 16
WIRE -752 32 -752 16
WIRE -304 32 -304 16
WIRE -752 128 -752 112
FLAG -496 32 0
FLAG 48 0 0
FLAG -304 96 0
FLAG -256 -16 0
FLAG -752 128 0
FLAG -752 288 0
FLAG -672 288 0
FLAG -752 208 +V
FLAG -672 208 -V
FLAG -672 -32 +V
FLAG -464 -16 +V
FLAG -224 -32 +V
FLAG -112 -176 +V
FLAG -672 32 -V
FLAG -464 48 -V
FLAG -112 16 -V
FLAG -224 32 -V
FLAG 48 -224 VOUT
SYMBOL Opamps\\AD824 -464 -48 R0
SYMATTR InstName U7
SYMBOL res -400 -112 R90
WINDOW 0 0 56 VBottom 2
WINDOW 3 32 56 VTop 2
SYMATTR InstName R1
SYMATTR Value 68k
SYMBOL Opamps\\AD824 -224 -64 R0
SYMATTR InstName U1
SYMBOL res -304 0 R90
WINDOW 0 0 56 VBottom 2
WINDOW 3 32 56 VTop 2
SYMATTR InstName R2
SYMATTR Value 1k
SYMBOL cap -320 32 R0
SYMATTR InstName C1
SYMATTR Value 0.1µ
SYMBOL cap -528 -16 R90
WINDOW 0 0 32 VBottom 2
WINDOW 3 32 32 VTop 2
SYMATTR InstName C2
SYMATTR Value 33n
SYMBOL ind 48 -96 R90
WINDOW 0 5 56 VBottom 2
WINDOW 3 32 56 VTop 2
SYMATTR InstName L1
SYMATTR Value 25330.3m
SYMBOL cap 32 -64 R0
SYMATTR InstName C3
SYMATTR Value 0.1µ
SYMBOL RE1C001UN -160 -80 R0
WINDOW 3 56 72 Invisible 2
SYMATTR InstName U2
SYMBOL RE1C001ZP -160 -80 M180
WINDOW 3 56 72 Invisible 2
SYMATTR InstName U3
SYMBOL Opamps\\AD824 -672 -64 R0
SYMATTR InstName U4
SYMBOL res -736 16 R180
WINDOW 0 36 76 Left 2
WINDOW 3 36 40 Left 2
SYMATTR InstName R3
SYMATTR Value 100Meg
SYMBOL res -736 128 R180
WINDOW 0 36 76 Left 2
WINDOW 3 36 40 Left 2
SYMATTR InstName R4
SYMATTR Value 1Meg
SYMBOL voltage -752 192 R0
WINDOW 0 24 96 Invisible 2
WINDOW 3 24 16 Left 2
WINDOW 123 0 0 Left 0
WINDOW 39 0 0 Left 0
SYMATTR InstName V9
SYMATTR Value 5
SYMBOL voltage -672 192 R0
WINDOW 0 24 96 Invisible 2
WINDOW 3 24 16 Left 2
WINDOW 123 0 0 Left 0
WINDOW 39 0 0 Left 0
SYMATTR InstName V10
SYMATTR Value -5
TEXT -588 288 Left 2 !.tran 10
