Version 4
SHEET 1 880 680
WIRE 352 -160 64 -160
WIRE 128 -112 128 -128
WIRE 128 -16 128 -32
WIRE 128 80 128 64
WIRE 144 80 128 80
WIRE 240 80 224 80
WIRE 256 80 240 80
WIRE 352 80 352 -160
WIRE 352 80 336 80
WIRE 128 96 128 80
WIRE 240 96 240 80
WIRE 352 96 352 80
WIRE 64 176 64 -160
WIRE 80 176 64 176
WIRE 240 176 240 160
WIRE 352 176 352 160
WIRE 400 176 352 176
WIRE 352 192 352 176
WIRE 400 192 400 176
WIRE 128 208 128 192
WIRE 352 288 352 256
WIRE 400 288 400 272
FLAG 240 176 0
FLAG 352 288 0
FLAG 128 208 0
FLAG 128 -128 0
FLAG 400 288 0
SYMBOL voltage 128 -16 R180
WINDOW 0 24 96 Left 2
WINDOW 3 -203 162 Left 2
WINDOW 123 0 0 Left 0
WINDOW 39 0 0 Left 0
SYMATTR InstName V1
SYMATTR Value PULSE(3 2.99 0 1n 1n)
SYMBOL cap 224 96 R0
SYMATTR InstName C1
SYMATTR Value 0.1µ
SYMBOL cap 336 96 R0
SYMATTR InstName C2
SYMATTR Value 0.1µ
SYMBOL ind 352 64 R90
WINDOW 0 5 56 VBottom 2
WINDOW 3 32 56 VTop 2
SYMATTR InstName L1
SYMATTR Value 1µ
SYMBOL res 112 -32 R0
WINDOW 3 33 62 Left 2
SYMATTR InstName R1
SYMATTR Value 100k
SYMBOL cap 336 192 R0
WINDOW 0 -20 13 Left 2
WINDOW 3 -40 48 Left 2
SYMATTR InstName C4
SYMATTR Value 0.1µ
SYMBOL res 240 64 R90
WINDOW 0 0 56 VBottom 2
WINDOW 3 32 56 VTop 2
SYMATTR InstName R4
SYMATTR Value 1k
SYMBOL RE1C001UN 80 96 R0
WINDOW 0 7 -6 Left 2
WINDOW 3 -2 -62 VRight 2
SYMATTR InstName U2
SYMBOL res 384 176 R0
SYMATTR InstName R2
SYMATTR Value 10k
TEXT 72 -208 Left 2 !.tran 100
