Version 4
SHEET 1 904 1388
WIRE 432 -224 -752 -224
WIRE -624 -96 -720 -96
WIRE -496 -96 -512 -96
WIRE -752 -80 -752 -224
WIRE 320 -80 320 -112
WIRE 320 -80 272 -80
WIRE 336 -80 320 -80
WIRE 432 -80 432 -224
WIRE 432 -80 416 -80
WIRE 432 -64 432 -80
WIRE -720 -16 -720 -96
WIRE -704 -16 -720 -16
WIRE 144 -16 128 -16
WIRE -624 0 -624 -96
WIRE -624 0 -640 0
WIRE -592 0 -624 0
WIRE -512 0 -512 -96
WIRE -512 0 -528 0
WIRE -496 0 -512 0
WIRE -128 0 -192 0
WIRE 144 0 -128 0
WIRE 224 0 224 -160
WIRE 224 0 208 0
WIRE -752 16 -752 0
WIRE -704 16 -752 16
WIRE -416 16 -416 -96
WIRE -416 16 -432 16
WIRE -400 16 -416 16
WIRE -304 16 -320 16
WIRE -256 16 -304 16
WIRE 128 16 128 -16
WIRE 144 16 128 16
WIRE -752 32 -752 16
WIRE -304 32 -304 16
WIRE 144 32 80 32
WIRE 128 48 128 16
WIRE 144 48 128 48
WIRE -112 80 -160 80
WIRE 80 80 80 32
WIRE 80 80 48 80
WIRE 128 96 128 48
WIRE -752 128 -752 112
WIRE -128 128 -128 0
WIRE -112 128 -128 128
WIRE -160 192 -160 80
WIRE -160 192 -176 192
WIRE -592 208 -592 0
WIRE -512 208 -592 208
WIRE -368 208 -448 208
WIRE -304 208 -368 208
WIRE -240 208 -304 208
WIRE -640 448 -752 448
FLAG -496 32 0
FLAG 432 0 0
FLAG -304 96 0
FLAG -256 -16 0
FLAG -752 128 0
FLAG -752 288 0
FLAG -672 288 0
FLAG -752 208 +V
FLAG -672 208 -V
FLAG -672 -32 +V
FLAG -464 -16 +V
FLAG -224 -32 +V
FLAG -672 32 -V
FLAG -464 48 -V
FLAG -224 32 -V
FLAG 432 -224 VOUT
FLAG -368 272 0
FLAG -304 288 0
FLAG -208 160 +V
FLAG -208 224 -V
FLAG -32 176 -V
FLAG -32 32 -V
FLAG -752 368 +V
FLAG -752 528 0
FLAG -640 448 1.0V
FLAG -240 176 1.0V
FLAG 320 -112 VCMOS
FLAG 272 -176 +V
FLAG 272 16 -V
FLAG 128 96 -V
SYMBOL Opamps\\AD824 -464 -48 R0
SYMATTR InstName U7
SYMBOL res -400 -112 R90
WINDOW 0 0 56 VBottom 2
WINDOW 3 32 56 VTop 2
SYMATTR InstName R1
SYMATTR Value 68k
SYMBOL Opamps\\AD824 -224 -64 R0
SYMATTR InstName U1
SYMBOL res -304 0 R90
WINDOW 0 0 56 VBottom 2
WINDOW 3 32 56 VTop 2
SYMATTR InstName R2
SYMATTR Value 10k
SYMBOL cap -320 32 R0
SYMATTR InstName C1
SYMATTR Value 0.1µ
SYMBOL cap -528 -16 R90
WINDOW 0 0 32 VBottom 2
WINDOW 3 32 32 VTop 2
SYMATTR InstName C2
SYMATTR Value 33n
SYMBOL ind 432 -96 R90
WINDOW 0 5 56 VBottom 2
WINDOW 3 32 56 VTop 2
SYMATTR InstName L1
SYMATTR Value 25330.3m
SYMBOL cap 416 -64 R0
SYMATTR InstName C3
SYMATTR Value 0.1µ
SYMBOL RE1C001UN 224 -80 R0
WINDOW 3 56 72 Invisible 2
SYMATTR InstName U2
SYMBOL RE1C001ZP 224 -80 M180
WINDOW 3 56 72 Invisible 2
SYMATTR InstName U3
SYMBOL Opamps\\AD824 -672 -64 R0
SYMATTR InstName U4
SYMBOL res -736 16 R180
WINDOW 0 36 76 Left 2
WINDOW 3 36 40 Left 2
SYMATTR InstName R3
SYMATTR Value 99.9Meg
SYMBOL res -736 128 R180
WINDOW 0 36 76 Left 2
WINDOW 3 36 40 Left 2
SYMATTR InstName R4
SYMATTR Value 100k
SYMBOL voltage -752 192 R0
WINDOW 0 24 96 Invisible 2
WINDOW 3 24 16 Left 2
WINDOW 123 0 0 Left 0
WINDOW 39 0 0 Left 0
SYMATTR InstName V9
SYMATTR Value 5
SYMBOL voltage -672 192 R0
WINDOW 0 24 96 Invisible 2
WINDOW 3 24 16 Left 2
WINDOW 123 0 0 Left 0
WINDOW 39 0 0 Left 0
SYMATTR InstName V10
SYMATTR Value -5
SYMBOL schottky -512 224 R270
WINDOW 0 32 32 VTop 2
WINDOW 3 0 32 VBottom 2
SYMATTR InstName D1
SYMATTR Value 1N5817
SYMATTR Description Diode
SYMATTR Type diode
SYMBOL res -320 192 R0
SYMATTR InstName R5
SYMATTR Value 100k
SYMBOL cap -384 208 R0
SYMATTR InstName C4
SYMATTR Value 1µ
SYMBOL Opamps\\AD824 -208 128 R0
SYMATTR InstName U5
SYMBOL Digital\\xor 192 -48 R0
WINDOW 3 -46 118 Left 2
SYMATTR InstName A2
SYMATTR Value vlow=-5 vhigh=5
SYMBOL Digital\\dflop -32 32 R0
WINDOW 3 31 161 Left 2
SYMATTR Value vlow=-5 vhigh=5
SYMATTR InstName A3
SYMBOL res -768 352 R0
SYMATTR InstName R7
SYMATTR Value 40k
SYMBOL res -768 432 R0
SYMATTR InstName R8
SYMATTR Value 10k
TEXT -696 336 Left 2 !.tran 10
TEXT 400 48 Left 2 !.ic V(VOUT)=1u
TEXT 400 80 Left 2 !.ic V(VCMOS)=1u
