Version 4
SHEET 1 904 1388
WIRE -208 -336 -352 -336
WIRE -352 -208 -352 -336
WIRE -304 -208 -352 -208
WIRE -208 -192 -208 -336
WIRE -208 -192 -240 -192
WIRE 256 -192 -208 -192
WIRE -304 -176 -352 -176
WIRE 128 -96 -128 -96
WIRE -1200 -16 -1232 -16
WIRE -784 -16 -1040 -16
WIRE -640 -16 -704 -16
WIRE -608 -16 -640 -16
WIRE -512 -16 -544 -16
WIRE -1200 32 -1232 32
WIRE 256 64 256 -192
WIRE -640 96 -640 -16
WIRE -640 96 -736 96
WIRE 48 96 -32 96
WIRE 128 96 128 -96
WIRE -1120 128 -1120 80
WIRE -1008 128 -1120 128
WIRE -912 128 -1008 128
WIRE -880 128 -912 128
WIRE -640 128 -736 128
WIRE 352 128 336 128
WIRE 480 128 432 128
WIRE -464 144 -464 64
WIRE -448 144 -464 144
WIRE -352 144 -352 -176
WIRE -352 144 -368 144
WIRE 576 144 544 144
WIRE 256 160 256 144
WIRE 256 160 128 160
WIRE 336 160 336 128
WIRE 336 160 256 160
WIRE 480 160 336 160
WIRE -128 176 -128 -96
WIRE -80 176 -128 176
WIRE -1200 224 -1232 224
WIRE -784 224 -1040 224
WIRE -640 224 -640 128
WIRE -640 224 -704 224
WIRE -512 224 -640 224
WIRE 128 240 128 224
WIRE -1200 272 -1232 272
WIRE -32 272 -32 192
WIRE -1120 352 -1120 320
WIRE -1008 352 -1008 128
WIRE -1008 352 -1120 352
WIRE -208 368 -432 368
WIRE -1232 448 -1232 272
WIRE -400 448 -1232 448
WIRE -208 448 -208 368
WIRE -208 448 -240 448
WIRE -432 496 -432 368
WIRE -416 496 -432 496
WIRE 576 496 576 144
WIRE 576 496 -240 496
FLAG 48 160 0
FLAG 128 240 0
FLAG -32 272 0
FLAG -32 -64 0
FLAG 512 176 0
FLAG 512 32 0
FLAG 432 64 0
FLAG -352 208 0
FLAG -272 -160 0
FLAG -272 -304 0
FLAG -1120 -64 0
FLAG -1120 176 0
FLAG -1312 32 0
FLAG -1312 -16 0
FLAG -1312 224 0
FLAG -912 192 0
FLAG -704 288 0
FLAG -704 48 0
FLAG -464 -112 0
FLAG -464 240 0
FLAG -320 400 0
FLAG -320 544 0
SYMBOL voltage -32 32 R180
WINDOW 0 24 96 Left 2
WINDOW 3 129 87 Left 2
WINDOW 123 0 0 Left 0
WINDOW 39 0 0 Left 0
SYMATTR InstName V1
SYMATTR Value PULSE(3 0 0 1n 1n)
SYMBOL cap 32 96 R0
SYMATTR InstName C1
SYMATTR Value 100p
SYMBOL cap 112 96 R0
SYMATTR InstName C2
SYMATTR Value 200p
SYMBOL ind 144 80 R90
WINDOW 0 5 56 VBottom 2
WINDOW 3 32 56 VTop 2
SYMATTR InstName L1
SYMATTR Value 400µ
SYMBOL res -48 0 R0
SYMATTR InstName R1
SYMATTR Value 10k
SYMBOL varactor 144 224 R180
WINDOW 0 24 64 Left 2
WINDOW 3 24 0 Left 2
SYMATTR InstName D1
SYMATTR Value KV1471
SYMBOL RE1C001UN -80 96 R0
SYMATTR InstName U1
SYMBOL res -352 128 R90
WINDOW 0 0 56 VBottom 2
WINDOW 3 32 56 VTop 2
SYMATTR InstName R7
SYMATTR Value 1k
SYMBOL voltage 512 128 R180
WINDOW 0 24 96 Left 2
WINDOW 3 24 16 Left 2
WINDOW 123 0 0 Left 0
WINDOW 39 0 0 Left 0
SYMATTR InstName V5
SYMATTR Value 5
SYMBOL cap 448 128 R180
WINDOW 0 24 56 Left 2
WINDOW 3 24 8 Left 2
SYMATTR InstName C5
SYMATTR Value 1n
SYMBOL res 448 112 R90
WINDOW 0 0 56 VBottom 2
WINDOW 3 32 56 VTop 2
SYMATTR InstName R2
SYMATTR Value 100k
SYMBOL Comparators\\LT1721 512 80 R0
SYMATTR InstName U6
SYMBOL cap -368 144 R0
SYMATTR InstName C6
SYMATTR Value 1µ
SYMBOL res 240 48 R0
SYMATTR InstName R8
SYMATTR Value 10k
SYMBOL voltage -272 -208 R180
WINDOW 0 24 96 Left 2
WINDOW 3 24 16 Left 2
WINDOW 123 0 0 Left 0
WINDOW 39 0 0 Left 0
SYMATTR InstName V4
SYMATTR Value 5
SYMBOL Opamps\\AD824 -272 -256 R0
SYMATTR InstName U7
SYMBOL Digital\\dflop -1120 -64 R0
WINDOW 3 8 12 Left 2
SYMATTR InstName A1
SYMATTR Value vlow=0 vhigh=5
SYMBOL Digital\\dflop -1120 176 R0
WINDOW 3 8 12 Left 2
SYMATTR InstName A2
SYMATTR Value vlow=0 vhigh=5
SYMBOL Digital\\and -768 176 R180
WINDOW 3 16 -4 Left 2
SYMATTR InstName A3
SYMATTR Value vlow=0 vhigh=5
SYMBOL voltage -1216 -16 R90
WINDOW 0 24 96 Left 2
WINDOW 3 24 16 Left 2
WINDOW 123 0 0 Left 0
WINDOW 39 0 0 Left 0
SYMATTR InstName V9
SYMATTR Value 5
SYMBOL voltage -1216 224 R90
WINDOW 0 24 96 Left 2
WINDOW 3 24 16 Left 2
WINDOW 123 0 0 Left 0
WINDOW 39 0 0 Left 0
SYMATTR InstName V10
SYMATTR Value 5
SYMBOL voltage -1216 32 R90
WINDOW 0 24 96 Left 2
WINDOW 3 24 16 Left 2
WINDOW 123 0 0 Left 0
WINDOW 39 0 0 Left 0
SYMATTR InstName V8
SYMATTR Value PULSE(0 5 0 1n 1n 0.5u 1u)
SYMBOL cap -928 128 R0
SYMATTR InstName C8
SYMATTR Value 10p
SYMBOL res -784 112 R90
WINDOW 0 0 56 VBottom 2
WINDOW 3 32 56 VTop 2
SYMATTR InstName R10
SYMATTR Value 1k
SYMBOL res -688 -32 R90
WINDOW 0 0 56 VBottom 2
WINDOW 3 32 56 VTop 2
SYMATTR InstName R11
SYMATTR Value 1k
SYMBOL res -688 208 R90
WINDOW 0 0 56 VBottom 2
WINDOW 3 32 56 VTop 2
SYMATTR InstName R12
SYMATTR Value 1k
SYMBOL cap -720 224 R0
SYMATTR InstName C9
SYMATTR Value 10p
SYMBOL cap -720 -16 R0
SYMATTR InstName C10
SYMATTR Value 10p
SYMBOL RE1C001ZP -512 64 M180
SYMATTR InstName U2
SYMBOL RE1C001UN -512 144 R0
SYMATTR InstName U3
SYMBOL voltage -464 -16 R180
WINDOW 0 24 96 Left 2
WINDOW 3 24 16 Left 2
WINDOW 123 0 0 Left 0
WINDOW 39 0 0 Left 0
SYMATTR InstName V2
SYMATTR Value 5
SYMBOL Digital\\inv -608 -80 R0
WINDOW 3 8 60 Left 2
SYMATTR InstName A4
SYMATTR Value vlow=0 vhigh=5
SYMBOL Digital\\dflop -320 400 M0
WINDOW 3 8 12 Left 2
SYMATTR InstName A5
SYMATTR Value vlow=0 vhigh=5
TEXT -184 208 Left 2 !.tran 100m
